Circuit: * C:\Users\Reginald Jean-Price\Documents\Conzult Tool\Power Input Selector.asc

Direct Newton iteration for .op point succeeded.

Date: Wed Jan 06 12:51:26 2016
Total elapsed time: 0.075 seconds.

tnom = 27
temp = 27
method = modified trap
totiter = 3144
traniter = 3120
tranpoints = 1432
accept = 1363
rejected = 69
matrix size = 13
fillins = 1
solver = Normal
Matrix Compiler1: 612 bytes object code size  0.3/0.2/[0.1]
Matrix Compiler2: off  [0.1]/0.2/0.2


